** sch_path: /home/raphael03/MSIB/opamp/mag/pmoscs67.sch
.subckt pmoscs67 VIP VIN OUT VDD D6 D5
*.PININFO VIP:I VIN:I OUT:O VDD:B D6:B D5:B
XM1 D6 D6 D6 VDD sky130_fd_pr__pfet_01v8 L=0.15 W=1 nf=1 m=4
XM6 D6 VIN D5 VDD sky130_fd_pr__pfet_01v8 L=0.5 W=1 nf=1 m=4
XM7 OUT VIP D5 VDD sky130_fd_pr__pfet_01v8 L=0.5 W=1 nf=1 m=4
XM2 OUT OUT OUT VDD sky130_fd_pr__pfet_01v8 L=0.15 W=1 nf=1 m=4
.ends
.end
